read_data 	fcc_unwrapped_coordinate.dat
Reading data file ...
  orthogonal box = (0 0 0) to (43.28 43.28 43.28)
  reading atoms ...
  376 atoms
  scanning bonds ...
  scanning angles ...
  scanning dihedrals ...
  reading bonds ...
  367 bonds
  reading angles ...
  369 angles
  reading dihedrals ...
  371 dihedrals
Finding 1-2 1-3 1-4 neighbors ...
     3 = max # of 1-2 neighbors
     3 = max # of 1-3 neighbors
     6 = max # of 1-4 neighbors
     9 = max # of special neighbors

# Dreiding potential information
neighbor	0.4 bin
neigh_modify	delay 0 every 5 check yes
bond_style      harmonic
bond_coeff	1 350 1.53
angle_style     harmonic
angle_coeff	1 60 109.5
dihedral_style	multi/harmonic
dihedral_coeff	1 1.73 -4.49 0.776 6.99 0.0
pair_style	lj/cut 10.5
pair_coeff	1 1 0.112 4.01 10.5

#####################################################
# Equilibration Stage 1 (Langevin dynamics at 500 K)
velocity 	all create 500.0 1231
fix		1 all nve/limit 0.05
fix		2 all langevin 500.0 500.0 10.0 904297
thermo_style	custom step temp press
thermo          500
timestep	1
run		10000
Generated 0 of 0 mixed pair_coeff terms from geometric mixing rule
Last active /omp style is dihedral_style multi/harmonic/omp
  update every 5 steps, delay 0 steps, check yes
Step          Temp          Press
0   500            21066496
Averages over the last 11 of 21 rows, steps 5000 to 10000:
Temp Press
506.624 159.496
Loop time of 1.42609 on 8 procs for 10000 steps with 376 atoms

unfix 1
unfix 2

#####################################################
# Equilibration Stage 2 (1ns NPT dynamics at 500 K)
fix		1 all npt temp 500.0 500.0 50 iso 0 0 1000 drag 2
fix  		2 all momentum 1 linear 1 1 1
thermo          1000
timestep	1
reset_timestep	0
run		10000
Generated 0 of 0 mixed pair_coeff terms from geometric mixing rule
Last active /omp style is dihedral_style multi/harmonic/omp
Step          Temp          Press
0   504.59576      106.70135
Averages over the last 6 of 11 rows, steps 5000 to 10000:
Temp Press
498.17 -22.4962
Loop time of 1.55627 on 8 procs for 10000 steps with 376 atoms

unfix 1
unfix 2
